LTspice 24.1.10 for Windows
Circuit: D:\MEGA\Giao an\Thiet ke vi mach tuong tu va hon hop\SAR Lab\LTspice-5-main\MyComparator.sub
Start Time: Sat Nov  1 18:57:11 2025
No analysis specified.